Version 4
SHEET 1 880 876
WIRE -1232 -816 -1344 -816
WIRE -1344 -752 -1344 -816
WIRE -1344 -640 -1344 -672
WIRE -1744 -496 -1840 -496
WIRE -1296 -496 -1392 -496
WIRE -192 -464 -448 -464
WIRE -1840 -448 -1840 -496
WIRE -1392 -448 -1392 -496
WIRE -832 -448 -832 -480
WIRE -192 -432 -448 -432
WIRE -192 -400 -464 -400
WIRE 176 -384 0 -384
WIRE 240 -384 176 -384
WIRE -336 -368 -368 -368
WIRE -192 -368 -272 -368
WIRE -832 -352 -832 -368
WIRE -832 -352 -896 -352
WIRE -1840 -336 -1840 -368
WIRE -1392 -336 -1392 -368
WIRE -896 -336 -896 -352
WIRE -192 -336 -224 -336
WIRE -832 -320 -832 -352
WIRE -192 -304 -224 -304
WIRE 176 -272 176 -304
WIRE -1152 -208 -1424 -208
WIRE -832 -208 -832 -240
WIRE -832 -208 -944 -208
WIRE -1136 -128 -1424 -128
WIRE -1152 -64 -1392 -64
WIRE -112 -16 -480 -16
WIRE -112 96 -112 -16
WIRE -160 112 -240 112
WIRE -160 160 -480 160
WIRE -112 240 -112 176
WIRE 208 240 -112 240
FLAG -368 -368 0
FLAG -224 -304 VCC-
FLAG -896 -336 0
FLAG -944 -208 VCC-
FLAG -224 -336 VCC+
FLAG -832 -480 VCC+
FLAG 176 -272 0
FLAG -448 -464 SH_IN
FLAG -480 -16 LA_IN
FLAG 208 240 LA_OUT
FLAG -480 160 SCLA_IN
FLAG -464 -400 SCSH_IN
FLAG 240 -384 SH_OUT
FLAG -240 112 0
FLAG -448 -432 +Vcc
FLAG -1392 -336 0
FLAG -1136 -128 SCLA_IN
FLAG -1424 -128 SCLA
FLAG -1424 -208 SCSH
FLAG -1152 -208 SCSH_IN
FLAG -1296 -496 SCSH
FLAG -1840 -336 0
FLAG -1744 -496 SCLA
FLAG -1344 -640 0
FLAG -1232 -816 SH_IN
FLAG -1392 -64 SH_OUT
FLAG -1152 -64 LA_IN
SYMBOL cap -272 -384 R90
WINDOW 0 16 56 VBottom 2
WINDOW 3 -12 -3 VTop 2
SYMATTR InstName C1
SYMATTR Value 3n
SYMBOL res 160 -400 R0
SYMATTR InstName R1
SYMATTR Value 10K
SYMBOL LF398 -128 -416 R0
WINDOW 0 11 114 Left 2
SYMATTR InstName U1
SYMBOL voltage -832 -464 R0
WINDOW 123 0 0 Left 2
WINDOW 39 0 0 Left 2
SYMATTR InstName V1
SYMATTR Value 10
SYMBOL voltage -832 -336 R0
WINDOW 123 0 0 Left 2
WINDOW 39 0 0 Left 2
SYMATTR InstName V2
SYMATTR Value 10
SYMBOL sw -112 80 R0
SYMATTR InstName S1
SYMATTR Value MYSW
SYMBOL circuiTikz\\voltage_us -1392 -464 R0
WINDOW 123 0 0 Left 0
WINDOW 39 0 0 Left 0
SYMATTR InstName V3
SYMATTR Value PULSE(0 10 0 0 0 7.102u)
SYMBOL circuiTikz\\voltage_us -1840 -464 R0
WINDOW 123 0 0 Left 0
WINDOW 39 0 0 Left 0
SYMATTR InstName V4
SYMATTR Value PULSE(0 10 0 0 0 5.7u)
SYMBOL circuiTikz\\voltage_us -1344 -768 R0
WINDOW 123 0 0 Left 0
WINDOW 39 0 0 Left 0
SYMATTR InstName V5
SYMATTR Value SINE(0 1 1k)
TEXT 240 -520 Left 2 ;Sample & Hold
TEXT -368 -96 Left 2 !.model MYSW SW(Ron=125 Roff=1Meg Vt=.5 Vh=-.4)
TEXT -224 -136 Left 2 ;LLAVE ANALOGICA
TEXT -1874 390 Left 2 !.tran 0 3m 0
RECTANGLE Normal 416 -160 -624 -544 2
RECTANGLE Normal 416 384 -608 -160 2
