Version 4
SHEET 1 972 876
WIRE -992 -1232 -1168 -1232
WIRE -1168 -1184 -1168 -1232
WIRE -1120 -1184 -1168 -1184
WIRE -992 -1168 -992 -1232
WIRE -992 -1168 -1056 -1168
WIRE -944 -1168 -992 -1168
WIRE -1488 -1152 -1760 -1152
WIRE -1232 -1152 -1488 -1152
WIRE -1120 -1152 -1232 -1152
WIRE -1760 -1104 -1760 -1152
WIRE -1488 -1104 -1488 -1152
WIRE -1232 -1104 -1232 -1152
WIRE -1760 -976 -1760 -1024
WIRE -1488 -976 -1488 -1024
WIRE -1232 -976 -1232 -1024
WIRE -1760 -864 -1760 -896
WIRE -1488 -864 -1488 -896
WIRE -1232 -864 -1232 -896
WIRE -1744 -496 -1840 -496
WIRE -1296 -496 -1392 -496
WIRE -192 -464 -448 -464
WIRE 304 -464 128 -464
WIRE -1840 -448 -1840 -496
WIRE -1392 -448 -1392 -496
WIRE -832 -448 -832 -480
WIRE -192 -432 -448 -432
WIRE 128 -416 128 -464
WIRE 176 -416 128 -416
WIRE -192 -400 -464 -400
WIRE 304 -400 304 -464
WIRE 304 -400 240 -400
WIRE 352 -400 304 -400
WIRE 176 -384 0 -384
WIRE -336 -368 -368 -368
WIRE -192 -368 -272 -368
WIRE -832 -352 -832 -368
WIRE -832 -352 -896 -352
WIRE -1840 -336 -1840 -368
WIRE -1392 -336 -1392 -368
WIRE -896 -336 -896 -352
WIRE -192 -336 -224 -336
WIRE -832 -320 -832 -352
WIRE -192 -304 -224 -304
WIRE -1152 -208 -1424 -208
WIRE -832 -208 -832 -240
WIRE -832 -208 -944 -208
WIRE -1136 -128 -1424 -128
WIRE -1152 -64 -1392 -64
WIRE -112 -16 -480 -16
WIRE 304 16 128 16
WIRE 128 64 128 16
WIRE 176 64 128 64
WIRE 304 80 304 16
WIRE 304 80 240 80
WIRE -112 96 -112 -16
WIRE -160 112 -240 112
WIRE 256 144 80 144
WIRE -160 160 -480 160
WIRE 80 192 80 144
WIRE 128 192 80 192
WIRE 256 208 256 144
WIRE 256 208 192 208
WIRE 304 208 256 208
WIRE -112 224 -112 176
WIRE 32 224 -112 224
WIRE 128 224 32 224
WIRE 32 272 32 224
WIRE 32 368 32 352
FLAG -368 -368 0
FLAG -224 -304 VCC-
FLAG -896 -336 0
FLAG -944 -208 VCC-
FLAG -224 -336 VCC+
FLAG -832 -480 VCC+
FLAG -448 -464 SH_IN
FLAG -480 -16 LA_IN
FLAG -480 160 SCLA_IN
FLAG -464 -400 SCSH_IN
FLAG -240 112 0
FLAG -448 -432 VCC+
FLAG -1392 -336 0
FLAG -1136 -128 SCLA_IN
FLAG -1424 -128 SCLA
FLAG -1424 -208 SCSH
FLAG -1152 -208 SCSH_IN
FLAG -1296 -496 SCSH
FLAG -1840 -336 0
FLAG -1744 -496 SCLA
FLAG -1392 -64 SH_OUT
FLAG -1152 -64 LA_IN
FLAG -1760 -864 0
FLAG -1488 -864 0
FLAG -1232 -864 0
FLAG -944 -1168 SH_IN
FLAG 352 -400 SH_OUT
FLAG 304 208 LA_OUT
FLAG 32 368 0
SYMBOL cap -272 -384 R90
WINDOW 0 16 56 VBottom 2
WINDOW 3 -12 -3 VTop 2
SYMATTR InstName C1
SYMATTR Value 3n
SYMBOL LF398 -128 -416 R0
WINDOW 0 11 114 Left 2
SYMATTR InstName U1
SYMBOL voltage -832 -464 R0
WINDOW 123 0 0 Left 2
WINDOW 39 0 0 Left 2
SYMATTR InstName V1
SYMATTR Value 10
SYMBOL voltage -832 -336 R0
WINDOW 123 0 0 Left 2
WINDOW 39 0 0 Left 2
SYMATTR InstName V2
SYMATTR Value 10
SYMBOL sw -112 80 R0
SYMATTR InstName S1
SYMATTR Value MYSW
SYMBOL circuiTikz\\voltage_us -1392 -464 R0
WINDOW 123 0 0 Left 0
WINDOW 39 0 0 Left 0
SYMATTR InstName V3
SYMATTR Value PULSE (0 10 0 1n 1n 1.42u 28.41u)
SYMBOL circuiTikz\\voltage_us -1840 -464 R0
WINDOW 123 0 0 Left 0
WINDOW 39 0 0 Left 0
SYMATTR InstName V4
SYMATTR Value PULSE (0 10 0 1n 1n 1.42u 28.41u)
SYMBOL circuiTikz\\voltage_us -1760 -992 R0
WINDOW 123 0 0 Left 0
WINDOW 39 0 0 Left 0
SYMATTR InstName V5
SYMATTR Value SINE(0 0.5 43k2)
SYMBOL circuiTikz\\voltage_us -1488 -992 R0
SYMATTR InstName V6
SYMATTR Value SINE(0 2 48k)
SYMBOL circuiTikz\\voltage_us -1232 -992 R0
SYMATTR InstName V7
SYMATTR Value SINE(0 0.5 52k8)
SYMBOL res -1776 -1120 R0
SYMATTR InstName R3
SYMATTR Value 100
SYMBOL res -1504 -1120 R0
SYMATTR InstName R4
SYMATTR Value 100
SYMBOL res -1248 -1120 R0
SYMATTR InstName R5
SYMATTR Value 100
SYMBOL Opamps\\opamp -1088 -1232 R0
SYMATTR InstName U2
SYMBOL Opamps\\opamp 208 -464 R0
SYMATTR InstName U3
SYMBOL Opamps\\opamp 208 16 R0
SYMATTR InstName U4
SYMBOL Opamps\\opamp 160 144 R0
SYMATTR InstName U5
SYMBOL res 16 256 R0
SYMATTR InstName R1
SYMATTR Value 10k
TEXT 240 -520 Left 2 ;Sample & Hold
TEXT -368 -96 Left 2 !.model MYSW SW(Ron=100 Roff=1Meg Vt=.5 Vh=-.4)
TEXT -224 -136 Left 2 ;LLAVE ANALOGICA
TEXT -1872 392 Left 2 !.tran 0 1m 0
TEXT -1848 -208 Left 2 !.include LF398.sub
TEXT -1160 -1288 Left 2 !.lib opamp.sub
RECTANGLE Normal 416 -160 -624 -544 2
RECTANGLE Normal 416 384 -608 -160 2
